Program Version,EnergyPlus, Version 22.2.0-c249759bad, YMD=2023.04.25 10:45,
   ************* Successfully added path "D:\\Frentes de Trabalho\\simulacoes_tese\\idfs_originals\\surface\\reference" to the sys.path in Python
   ** Warning ** AirflowNetwork::Solver::get_input: SurfaceAverageCalculation is entered for field = Wind Pressure Coefficient Type, but no roof surface is defined using an AirflowNetwork:MultiZone:Surface object.
   **   ~~~   ** Reconsider if this is your modeling intent. Simulation continues.
   ** Warning ** AirflowNetwork::Solver::get_input: SurfaceAverageCalculation is entered for field = Wind Pressure Coefficient Type.
   **   ~~~   ** The AirflowNetwork model provides wind pressure coefficients for 4 vertical exterior orientations and 1 horizontal roof.
   **   ~~~   **  There are only 4 exterior surface orientations defined in this input file using AirflowNetwork:MultiZone:Surface objects.
   **   ~~~   ** Reconsider if this is your modeling intent. Simulation continues.
   ************* Testing Individual Branch Integrity
   ************* All Branches passed integrity testing
   ************* Testing Individual Supply Air Path Integrity
   ************* All Supply Air Paths passed integrity testing
   ************* Testing Individual Return Air Path Integrity
   ************* All Return Air Paths passed integrity testing
   ************* No node connection errors were found.
   ************* Beginning Simulation
   ************* Simulation Error Summary *************
   ** Warning ** The following schedule names are "Unused Schedules".  These schedules are in the idf
   **   ~~~   **  file but are never obtained by the simulation and therefore are NOT used.
   ************* Schedule:Year or Schedule:Compact or Schedule:File or Schedule:Constant=SCH_VN_SALA
   ************* Schedule:Year or Schedule:Compact or Schedule:File or Schedule:Constant=SCH_VN_DORM
   ************* Schedule:Year or Schedule:Compact or Schedule:File or Schedule:Constant=SCH_HVAC_SALA
   ************* Schedule:Year or Schedule:Compact or Schedule:File or Schedule:Constant=SCH_HVAC_DORM
   ************* EnergyPlus Warmup Error Summary. During Warmup: 0 Warning; 0 Severe Errors.
   ************* EnergyPlus Sizing Error Summary. During Sizing: 0 Warning; 0 Severe Errors.
   ************* EnergyPlus Completed Successfully-- 3 Warning; 0 Severe Errors; Elapsed Time=00hr 01min 17.97sec
